  
       XFOIL         Version 6.99
  
 Calculated polar for: NACA4415                                        
  
 1 1 Reynolds number fixed          Mach number fixed         
  
 xtrf =   1.000 (top)        1.000 (bottom)  
 Mach =   0.000     Re =     1.004 e 6     Ncrit =   9.000
  
   alpha    CL        CD       CDp       CM     Top_Xtr  Bot_Xtr
  ------ -------- --------- --------- -------- -------- --------
   0.000   0.4124   0.00740   0.00172  -0.0850   0.5865   0.3740
   1.000   0.4892   0.00692   0.00186  -0.0774   0.5510   0.6229
   2.000   0.6474   0.00672   0.00241  -0.0875   0.5138   0.9362
   3.000   0.8205   0.00757   0.00305  -0.1009   0.4759   0.9907
   4.000   0.9574   0.00815   0.00343  -0.1068   0.4379   1.0000
   5.000   1.0270   0.00862   0.00380  -0.0980   0.4079   1.0000
   6.000   1.0904   0.00914   0.00424  -0.0880   0.3771   1.0000
   7.000   1.1568   0.00993   0.00490  -0.0790   0.3395   1.0000
   8.000   1.2231   0.01103   0.00582  -0.0706   0.2920   1.0000
   9.000   1.2817   0.01270   0.00722  -0.0616   0.2310   1.0000
  10.000   1.3369   0.01479   0.00908  -0.0531   0.1816   1.0000
  11.000   1.3927   0.01712   0.01132  -0.0455   0.1486   1.0000
  12.000   1.4437   0.01998   0.01416  -0.0385   0.1250   1.0000
  13.000   1.4905   0.02346   0.01767  -0.0322   0.1054   1.0000
  14.000   1.5235   0.02833   0.02254  -0.0261   0.0829   1.0000
  15.000   1.5369   0.03545   0.02966  -0.0204   0.0592   1.0000
  16.000   1.5421   0.04434   0.03867  -0.0166   0.0466   1.0000
  17.000   1.5412   0.05483   0.04937  -0.0147   0.0401   1.0000
  18.000   1.5319   0.06710   0.06192  -0.0146   0.0363   1.0000
  19.000   1.5049   0.08239   0.07749  -0.0163   0.0333   1.0000
  20.000   1.4873   0.09715   0.09259  -0.0193   0.0316   1.0000
  21.000   1.4571   0.11425   0.10998  -0.0243   0.0298   1.0000
  22.000   1.4229   0.13253   0.12857  -0.0312   0.0282   1.0000
  23.000   1.4039   0.14884   0.14518  -0.0389   0.0268   1.0000
  24.000   1.3840   0.16570   0.16225  -0.0483   0.0253   1.0000
  25.000   1.3765   0.18047   0.17725  -0.0576   0.0241   1.0000
