  
       XFOIL         Version 6.99
  
 Calculated polar for: NACA4415                                        
  
 1 1 Reynolds number fixed          Mach number fixed         
  
 xtrf =   1.000 (top)        1.000 (bottom)  
 Mach =   0.000     Re =     0.604 e 6     Ncrit =   9.000
  
   alpha    CL        CD       CDp       CM     Top_Xtr  Bot_Xtr
  ------ -------- --------- --------- -------- -------- --------
   0.000   0.4139   0.00800   0.00226  -0.0859   0.6266   0.5067
   1.000   0.4830   0.00740   0.00248  -0.0762   0.5883   0.8073
   2.000   0.7117   0.00819   0.00328  -0.1013   0.5454   0.9783
   3.000   0.8688   0.00885   0.00371  -0.1114   0.5082   1.0000
   4.000   0.9369   0.00931   0.00401  -0.1024   0.4728   1.0000
   5.000   1.0068   0.00984   0.00444  -0.0937   0.4423   1.0000
   6.000   1.0697   0.01041   0.00496  -0.0836   0.4114   1.0000
   7.000   1.1365   0.01120   0.00567  -0.0748   0.3775   1.0000
   8.000   1.2019   0.01231   0.00667  -0.0664   0.3378   1.0000
   9.000   1.2630   0.01386   0.00807  -0.0580   0.2846   1.0000
  11.000   1.3596   0.01913   0.01296  -0.0406   0.1813   1.0000
  12.000   1.4033   0.02264   0.01643  -0.0333   0.1506   1.0000
  13.000   1.4421   0.02692   0.02078  -0.0270   0.1282   1.0000
  14.000   1.4743   0.03227   0.02623  -0.0217   0.1075   1.0000
  15.000   1.4904   0.03968   0.03370  -0.0173   0.0840   1.0000
  16.000   1.4854   0.05008   0.04417  -0.0143   0.0630   1.0000
  17.000   1.4725   0.06244   0.05674  -0.0133   0.0519   1.0000
  18.000   1.4525   0.07661   0.07118  -0.0143   0.0459   1.0000
  19.000   1.4248   0.09261   0.08749  -0.0170   0.0418   1.0000
  20.000   1.3985   0.10909   0.10424  -0.0213   0.0389   1.0000
  21.000   1.3796   0.12486   0.12033  -0.0265   0.0365   1.0000
  22.000   1.3681   0.13985   0.13555  -0.0328   0.0342   1.0000
  23.000   1.3645   0.15347   0.14940  -0.0395   0.0322   1.0000
  24.000   1.3630   0.16719   0.16337  -0.0474   0.0302   1.0000
  25.000   1.3691   0.17902   0.17535  -0.0550   0.0284   1.0000
