  
       XFOIL         Version 6.99
  
 Calculated polar for: NACA4415                                        
  
 1 1 Reynolds number fixed          Mach number fixed         
  
 xtrf =   1.000 (top)        1.000 (bottom)  
 Mach =   0.000     Re =     0.204 e 6     Ncrit =   9.000
  
   alpha    CL        CD       CDp       CM     Top_Xtr  Bot_Xtr
  ------ -------- --------- --------- -------- -------- --------
   0.000   0.4933   0.01128   0.00556  -0.1035   0.7218   0.9139
   1.000   0.6991   0.01200   0.00585  -0.1220   0.6754   0.9936
   2.000   0.7953   0.01231   0.00576  -0.1196   0.6345   1.0000
   3.000   0.8732   0.01293   0.00608  -0.1128   0.5969   1.0000
   4.000   0.9517   0.01368   0.00664  -0.1061   0.5609   1.0000
   5.000   1.0257   0.01447   0.00732  -0.0984   0.5232   1.0000
   6.000   1.0980   0.01534   0.00813  -0.0905   0.4869   1.0000
   7.000   1.1656   0.01630   0.00908  -0.0818   0.4512   1.0000
   8.000   1.2189   0.01735   0.01016  -0.0706   0.4132   1.0000
   9.000   1.2616   0.01867   0.01143  -0.0581   0.3722   1.0000
  10.000   1.2958   0.02068   0.01346  -0.0457   0.3241   1.0000
  11.000   1.3187   0.02392   0.01661  -0.0338   0.2699   1.0000
  12.000   1.3394   0.02850   0.02109  -0.0243   0.2253   1.0000
  13.000   1.3609   0.03400   0.02668  -0.0172   0.1910   1.0000
  14.000   1.3762   0.04079   0.03356  -0.0117   0.1637   1.0000
  15.000   1.3822   0.04929   0.04218  -0.0079   0.1387   1.0000
  16.000   1.3772   0.06010   0.05324  -0.0063   0.1148   1.0000
  17.000   1.3643   0.07285   0.06620  -0.0064   0.0938   1.0000
  18.000   1.3568   0.08536   0.07882  -0.0073   0.0795   1.0000
  19.000   1.3552   0.09752   0.09122  -0.0091   0.0696   1.0000
  20.000   1.3643   0.10804   0.10193  -0.0107   0.0627   1.0000
  21.000   1.3638   0.12062   0.11487  -0.0147   0.0576   1.0000
  22.000   1.3452   0.13657   0.13137  -0.0215   0.0543   1.0000
  23.000   1.2782   0.16336   0.15891  -0.0375   0.0518   1.0000
