  
       XFOIL         Version 6.99
  
 Calculated polar for: NACA4415                                        
  
 1 1 Reynolds number fixed          Mach number fixed         
  
 xtrf =   1.000 (top)        1.000 (bottom)  
 Mach =   0.000     Re =     0.404 e 6     Ncrit =   9.000
  
   alpha    CL        CD       CDp       CM     Top_Xtr  Bot_Xtr
  ------ -------- --------- --------- -------- -------- --------
   0.000   0.4106   0.00858   0.00298  -0.0857   0.6602   0.6671
   1.000   0.5976   0.00865   0.00350  -0.1009   0.6162   0.9412
   3.000   0.8655   0.00996   0.00429  -0.1106   0.5380   1.0000
   4.000   0.9365   0.01050   0.00466  -0.1023   0.5036   1.0000
   5.000   1.0065   0.01113   0.00516  -0.0937   0.4697   1.0000
   6.000   1.0714   0.01184   0.00579  -0.0842   0.4384   1.0000
   7.000   1.1314   0.01264   0.00653  -0.0740   0.4052   1.0000
   8.000   1.1939   0.01367   0.00756  -0.0649   0.3676   1.0000
   9.000   1.2508   0.01519   0.00900  -0.0557   0.3229   1.0000
  10.000   1.2975   0.01752   0.01117  -0.0462   0.2641   1.0000
  11.000   1.3361   0.02082   0.01432  -0.0371   0.2129   1.0000
  12.000   1.3721   0.02489   0.01835  -0.0294   0.1757   1.0000
  13.000   1.4025   0.02996   0.02347  -0.0229   0.1489   1.0000
  14.000   1.4258   0.03630   0.02992  -0.0178   0.1272   1.0000
  15.000   1.4420   0.04411   0.03790  -0.0143   0.1048   1.0000
  16.000   1.4383   0.05484   0.04874  -0.0122   0.0820   1.0000
  17.000   1.4207   0.06814   0.06221  -0.0120   0.0656   1.0000
  18.000   1.3947   0.08338   0.07765  -0.0137   0.0567   1.0000
  19.000   1.3760   0.09836   0.09290  -0.0166   0.0507   1.0000
  20.000   1.3637   0.11277   0.10759  -0.0203   0.0463   1.0000
  21.000   1.3598   0.12575   0.12073  -0.0243   0.0429   1.0000
  22.000   1.3590   0.13892   0.13420  -0.0298   0.0400   1.0000
  23.000   1.3674   0.15000   0.14546  -0.0349   0.0373   1.0000
  24.000   1.3629   0.16424   0.16006  -0.0432   0.0350   1.0000
  25.000   1.3703   0.17558   0.17158  -0.0505   0.0328   1.0000
