  
       XFOIL         Version 6.99
  
 Calculated polar for: NACA4415                                        
  
 1 1 Reynolds number fixed          Mach number fixed         
  
 xtrf =   1.000 (top)        1.000 (bottom)  
 Mach =   0.000     Re =     0.004 e 6     Ncrit =   9.000
  
   alpha    CL        CD       CDp       CM     Top_Xtr  Bot_Xtr
  ------ -------- --------- --------- -------- -------- --------
   0.000  -0.1051   0.07398   0.04090  -0.0211   1.0000   1.0000
   1.000  -0.0529   0.07605   0.04075  -0.0192   1.0000   1.0000
   2.000   0.0014   0.07913   0.04209  -0.0177   1.0000   1.0000
   3.000   0.0554   0.08305   0.04469  -0.0166   1.0000   1.0000
   4.000   0.1085   0.08776   0.04846  -0.0160   1.0000   1.0000
   5.000   0.1599   0.09324   0.05330  -0.0159   1.0000   1.0000
   6.000   0.2095   0.09947   0.05919  -0.0163   1.0000   1.0000
   7.000   0.2571   0.10641   0.06602  -0.0174   1.0000   1.0000
   8.000   0.3025   0.11403   0.07374  -0.0190   1.0000   1.0000
   9.000   0.3458   0.12227   0.08226  -0.0213   1.0000   1.0000
  10.000   0.3874   0.13105   0.09145  -0.0242   1.0000   1.0000
  11.000   0.4275   0.14031   0.10119  -0.0277   1.0000   1.0000
  12.000   0.4664   0.14996   0.11143  -0.0318   1.0000   1.0000
  13.000   0.5045   0.15995   0.12206  -0.0365   1.0000   1.0000
  14.000   0.5419   0.17024   0.13304  -0.0417   1.0000   1.0000
  15.000   0.5788   0.18080   0.14427  -0.0474   1.0000   1.0000
  16.000   0.6152   0.19163   0.15584  -0.0535   1.0000   1.0000
  17.000   0.6512   0.20273   0.16768  -0.0600   1.0000   1.0000
  18.000   0.6865   0.21421   0.17989  -0.0669   1.0000   1.0000
  19.000   0.7214   0.22600   0.19238  -0.0741   1.0000   1.0000
  20.000   0.7558   0.23804   0.20512  -0.0815   1.0000   1.0000
  21.000   0.7897   0.25030   0.21805  -0.0892   1.0000   1.0000
  22.000   0.8231   0.26274   0.23115  -0.0970   1.0000   1.0000
  23.000   0.8560   0.27534   0.24436  -0.1050   1.0000   1.0000
  24.000   0.8882   0.28802   0.25767  -0.1131   1.0000   1.0000
  25.000   0.9196   0.30086   0.27114  -0.1214   1.0000   1.0000
