  
       XFOIL         Version 6.99
  
 Calculated polar for: NACA4415                                        
  
 1 1 Reynolds number fixed          Mach number fixed         
  
 xtrf =   1.000 (top)        1.000 (bottom)  
 Mach =   0.000     Re =     1.204 e 6     Ncrit =   9.000
  
   alpha    CL        CD       CDp       CM     Top_Xtr  Bot_Xtr
  ------ -------- --------- --------- -------- -------- --------
   0.000   0.4123   0.00718   0.00159  -0.0849   0.5729   0.3475
   1.000   0.4929   0.00681   0.00170  -0.0781   0.5383   0.5527
   2.000   0.5577   0.00639   0.00195  -0.0675   0.5069   0.8179
   3.000   0.8057   0.00713   0.00280  -0.0978   0.4645   0.9852
   4.000   0.9636   0.00780   0.00326  -0.1082   0.4264   0.9997
   5.000   1.0394   0.00826   0.00362  -0.1007   0.3958   1.0000
   6.000   1.1007   0.00879   0.00404  -0.0902   0.3637   1.0000
   7.000   1.1666   0.00956   0.00467  -0.0810   0.3251   1.0000
   8.000   1.2294   0.01074   0.00562  -0.0719   0.2721   1.0000
   9.000   1.2877   0.01239   0.00699  -0.0628   0.2130   1.0000
  10.000   1.3455   0.01433   0.00874  -0.0545   0.1680   1.0000
  11.000   1.4026   0.01655   0.01086  -0.0471   0.1383   1.0000
  12.000   1.4583   0.01909   0.01340  -0.0405   0.1176   1.0000
  13.000   1.5061   0.02240   0.01673  -0.0340   0.0979   1.0000
  14.000   1.5371   0.02728   0.02156  -0.0273   0.0738   1.0000
  15.000   1.5514   0.03418   0.02847  -0.0214   0.0525   1.0000
  16.000   1.5616   0.04243   0.03685  -0.0175   0.0424   1.0000
  17.000   1.5656   0.05221   0.04684  -0.0153   0.0370   1.0000
  18.000   1.5570   0.06419   0.05906  -0.0148   0.0334   1.0000
  19.000   1.5479   0.07695   0.07212  -0.0158   0.0312   1.0000
  20.000   1.5177   0.09312   0.08858  -0.0187   0.0292   1.0000
  21.000   1.4916   0.10934   0.10514  -0.0230   0.0278   1.0000
  22.000   1.4636   0.12637   0.12246  -0.0291   0.0263   1.0000
  23.000   1.4219   0.14617   0.14254  -0.0380   0.0248   1.0000
  24.000   1.4078   0.16191   0.15857  -0.0465   0.0238   1.0000
  25.000   1.3926   0.17808   0.17498  -0.0566   0.0226   1.0000
