  
       XFOIL         Version 6.99
  
 Calculated polar for: NACA4415                                        
  
 1 1 Reynolds number fixed          Mach number fixed         
  
 xtrf =   1.000 (top)        1.000 (bottom)  
 Mach =   0.000     Re =     1.404 e 6     Ncrit =   9.000
  
   alpha    CL        CD       CDp       CM     Top_Xtr  Bot_Xtr
  ------ -------- --------- --------- -------- -------- --------
   0.000   0.4120   0.00701   0.00149  -0.0847   0.5610   0.3288
   1.000   0.4958   0.00677   0.00158  -0.0786   0.5266   0.4889
   2.000   0.5675   0.00634   0.00181  -0.0697   0.4968   0.7487
   3.000   0.7965   0.00682   0.00262  -0.0958   0.4542   0.9793
   5.000   1.0487   0.00801   0.00348  -0.1028   0.3853   1.0000
   6.000   1.1094   0.00855   0.00391  -0.0921   0.3520   1.0000
   7.000   1.1750   0.00928   0.00451  -0.0828   0.3131   1.0000
   8.000   1.2351   0.01052   0.00546  -0.0731   0.2558   1.0000
   9.000   1.2936   0.01211   0.00679  -0.0640   0.1994   1.0000
  10.000   1.3536   0.01392   0.00843  -0.0559   0.1584   1.0000
  11.000   1.4135   0.01596   0.01039  -0.0487   0.1317   1.0000
  12.000   1.4694   0.01843   0.01284  -0.0420   0.1113   1.0000
  13.000   1.5161   0.02174   0.01612  -0.0352   0.0905   1.0000
  14.000   1.5470   0.02652   0.02086  -0.0283   0.0663   1.0000
  15.000   1.5639   0.03310   0.02746  -0.0223   0.0478   1.0000
  16.000   1.5779   0.04087   0.03536  -0.0182   0.0395   1.0000
  17.000   1.5866   0.05001   0.04469  -0.0159   0.0347   1.0000
  18.000   1.5866   0.06079   0.05573  -0.0150   0.0318   1.0000
  19.000   1.5702   0.07421   0.06940  -0.0157   0.0292   1.0000
  20.000   1.5542   0.08824   0.08375  -0.0179   0.0276   1.0000
  21.000   1.5268   0.10436   0.10017  -0.0218   0.0263   1.0000
  22.000   1.4833   0.12352   0.11964  -0.0282   0.0247   1.0000
  23.000   1.4604   0.14007   0.13649  -0.0353   0.0237   1.0000
  24.000   1.4333   0.15772   0.15440  -0.0445   0.0225   1.0000
  25.000   1.4031   0.17645   0.17337  -0.0559   0.0212   1.0000
